Version 4
SHEET 1 1944 1012
WIRE -688 -368 -848 -368
WIRE -608 -368 -688 -368
WIRE -528 -368 -608 -368
WIRE -48 -368 -528 -368
WIRE 208 -368 -48 -368
WIRE 352 -368 208 -368
WIRE 592 -368 352 -368
WIRE 1120 -368 592 -368
WIRE -848 -336 -848 -368
WIRE 208 -336 208 -368
WIRE 352 -336 352 -368
WIRE 592 -336 592 -368
WIRE 1120 -336 1120 -368
WIRE -688 -320 -688 -368
WIRE -608 -320 -608 -368
WIRE -528 -320 -528 -368
WIRE 208 -240 208 -256
WIRE -688 -224 -688 -256
WIRE -608 -224 -608 -256
WIRE -608 -224 -688 -224
WIRE -528 -224 -528 -256
WIRE -528 -224 -608 -224
WIRE 1120 -224 1120 -256
WIRE 1184 -224 1120 -224
WIRE 1312 -224 1248 -224
WIRE -848 -208 -848 -256
WIRE -48 -208 -48 -368
WIRE 352 -208 352 -256
WIRE 1120 -208 1120 -224
WIRE -528 -192 -528 -224
WIRE 1312 -176 1312 -224
WIRE -640 -144 -736 -144
WIRE -432 -144 -640 -144
WIRE -336 -144 -368 -144
WIRE -240 -144 -336 -144
WIRE -144 -144 -240 -144
WIRE -96 -144 -144 -144
WIRE 592 -144 592 -256
WIRE 704 -144 592 -144
WIRE 736 -144 704 -144
WIRE 848 -144 816 -144
WIRE 896 -144 848 -144
WIRE 1008 -144 960 -144
WIRE 1072 -144 1008 -144
WIRE 208 -128 208 -160
WIRE 592 -112 592 -144
WIRE 704 -112 704 -144
WIRE 848 -112 848 -144
WIRE 1008 -112 1008 -144
WIRE 1120 -96 1120 -112
WIRE 1200 -96 1120 -96
WIRE -48 -80 -48 -112
WIRE 0 -80 -48 -80
WIRE 112 -80 64 -80
WIRE 144 -80 112 -80
WIRE 352 -64 352 -128
WIRE 416 -64 352 -64
WIRE 512 -64 496 -64
WIRE 528 -64 512 -64
WIRE 1120 -64 1120 -96
WIRE 1200 -64 1200 -96
WIRE -640 -48 -640 -144
WIRE -640 -48 -688 -48
WIRE -592 -48 -640 -48
WIRE 112 -48 112 -80
WIRE -688 -16 -688 -48
WIRE -592 -16 -592 -48
WIRE 704 -16 704 -48
WIRE 848 -16 848 -48
WIRE 1008 -16 1008 -32
WIRE 592 16 592 -16
WIRE 688 16 592 16
WIRE -336 32 -336 -144
WIRE -240 32 -240 -144
WIRE -144 32 -144 -144
WIRE -48 32 -48 -80
WIRE 592 48 592 16
WIRE 1120 48 1120 16
WIRE 1200 48 1200 0
WIRE 1312 48 1312 -96
WIRE 112 64 112 32
WIRE 208 64 208 -32
WIRE 208 64 112 64
WIRE 240 64 208 64
WIRE 512 64 512 -64
WIRE 512 64 304 64
WIRE 688 64 688 16
WIRE -688 80 -688 48
WIRE -640 80 -688 80
WIRE -592 80 -592 64
WIRE -592 80 -640 80
WIRE 112 96 112 64
WIRE 208 96 208 64
WIRE 352 96 352 -64
WIRE -640 160 -640 80
WIRE -336 192 -336 96
WIRE -240 192 -240 96
WIRE -240 192 -336 192
WIRE -144 192 -144 112
WIRE -144 192 -240 192
WIRE -48 192 -48 112
WIRE -48 192 -144 192
WIRE 112 192 112 160
WIRE 112 192 -48 192
WIRE 208 192 208 176
WIRE 208 192 112 192
WIRE 352 192 352 160
WIRE 352 192 208 192
WIRE 592 192 592 128
WIRE 592 192 352 192
WIRE 688 192 688 128
WIRE 688 192 592 192
WIRE 592 240 592 192
WIRE 624 624 624 592
WIRE 752 624 752 592
WIRE 864 624 864 592
WIRE 624 752 624 704
WIRE 752 752 752 704
WIRE 864 752 864 704
FLAG 592 240 0
FLAG 624 592 carrier
FLAG 752 592 modulator
FLAG 624 752 0
FLAG 752 752 0
FLAG 864 752 0
FLAG 864 592 AM-signal
FLAG -848 -208 0
FLAG 704 -16 0
FLAG 848 -16 0
FLAG 1008 -16 0
FLAG 1120 48 0
FLAG 1200 48 0
FLAG 1312 48 0
FLAG -736 -144 AM-signal
FLAG -640 160 0
FLAG -528 -192 0
SYMBOL npn 528 -112 R0
SYMATTR InstName Q2
SYMATTR Value BC547C
SYMBOL res 576 -352 R0
SYMATTR InstName R8
SYMATTR Value 4.7k
SYMBOL res 336 -352 R0
SYMATTR InstName POT10k
SYMATTR Value 10k
SYMBOL res 512 -80 R90
WINDOW 0 0 56 VBottom 2
WINDOW 3 32 56 VTop 2
SYMATTR InstName R7
SYMATTR Value 10k
SYMBOL diode 336 96 R0
SYMATTR InstName D1
SYMATTR Value 1N4148
SYMBOL res 576 32 R0
SYMATTR InstName R9
SYMATTR Value 180
SYMBOL voltage 624 608 R0
WINDOW 3 -48 -25 VRight 2
WINDOW 123 0 0 Left 0
WINDOW 39 0 0 Left 0
SYMATTR Value SINE(0 1 450k)
SYMATTR InstName V1
SYMBOL voltage 752 608 R0
WINDOW 3 -48 -18 VRight 2
WINDOW 123 0 0 Left 0
WINDOW 39 0 0 Left 0
SYMATTR Value SINE(1 0.7 5k)
SYMATTR InstName V2
SYMBOL bv 864 608 R0
WINDOW 3 71 -229 VRight 2
SYMATTR InstName B1
SYMATTR Value V=V(carrier)*V(modulator)*0.001
SYMBOL voltage -848 -352 R0
WINDOW 123 0 0 Left 0
WINDOW 39 0 0 Left 0
SYMATTR InstName V3
SYMATTR Value 9V
SYMBOL cap 688 -112 R0
WINDOW 0 23 14 Left 2
SYMATTR InstName C5
SYMATTR Value 4.7n
SYMBOL cap 832 -112 R0
WINDOW 0 -18 12 Left 2
WINDOW 3 -40 57 Left 2
SYMATTR InstName C6
SYMATTR Value 4.7n
SYMBOL res 832 -160 R90
WINDOW 0 0 56 VBottom 2
WINDOW 3 32 56 VTop 2
SYMATTR InstName R10
SYMATTR Value 1k
SYMBOL cap 960 -160 R90
WINDOW 0 0 32 VBottom 2
WINDOW 3 32 32 VTop 2
SYMATTR InstName C7
SYMATTR Value 1µ
SYMBOL njf 1072 -208 R0
SYMATTR InstName J2
SYMATTR Value BF245A
SYMBOL res 1024 -16 R180
WINDOW 0 36 76 Left 2
WINDOW 3 36 40 Left 2
SYMATTR InstName R11
SYMATTR Value 470k
SYMBOL res 1136 32 R180
WINDOW 0 36 76 Left 2
WINDOW 3 36 40 Left 2
SYMATTR InstName R13
SYMATTR Value 330
SYMBOL res 1136 -240 R180
WINDOW 0 36 76 Left 2
WINDOW 3 36 40 Left 2
SYMATTR InstName R12
SYMATTR Value 1.5k
SYMBOL cap 1216 0 R180
WINDOW 0 24 56 Left 2
WINDOW 3 24 8 Left 2
SYMATTR InstName C8
SYMATTR Value 10µ
SYMBOL cap 1248 -240 R90
WINDOW 0 0 32 VBottom 2
WINDOW 3 32 32 VTop 2
SYMATTR InstName C9
SYMATTR Value 4.7µ
SYMBOL res 1328 -80 R180
WINDOW 0 -71 84 Left 2
WINDOW 3 -36 50 Left 2
SYMATTR InstName LOAD
SYMATTR Value 2k
SYMBOL cap 704 128 R180
WINDOW 0 -25 53 Left 2
WINDOW 3 -36 13 Left 2
SYMATTR InstName C4
SYMATTR Value 10µ
SYMBOL res 192 -256 R0
WINDOW 0 36 50 Left 2
WINDOW 3 35 73 Left 2
SYMATTR InstName R5
SYMATTR Value 10
SYMBOL cap -368 -160 R90
WINDOW 0 0 32 VBottom 2
WINDOW 3 32 32 VTop 2
SYMATTR InstName C1
SYMATTR Value 100n
SYMBOL res 96 -64 R0
SYMATTR InstName R3
SYMATTR Value 100k
SYMBOL cap 304 48 R90
WINDOW 0 0 32 VBottom 2
WINDOW 3 32 32 VTop 2
SYMATTR InstName C3
SYMATTR Value 22n
SYMBOL njf -96 -208 R0
SYMATTR InstName J1
SYMATTR Value BF245A
SYMBOL res -64 16 R0
SYMATTR InstName R2
SYMATTR Value 1k
SYMBOL cap 64 -96 R90
WINDOW 0 0 32 VBottom 2
WINDOW 3 32 32 VTop 2
SYMATTR InstName C2
SYMATTR Value 22n
SYMBOL res -128 128 R180
WINDOW 0 -35 77 Left 2
WINDOW 3 -64 105 Left 2
SYMATTR InstName R1
SYMATTR Value 1Meg
SYMBOL res 192 -352 R0
WINDOW 3 35 66 Left 2
SYMATTR Value 50
SYMATTR InstName POT1k
SYMBOL pnp 144 -32 M180
WINDOW 0 52 45 Left 2
WINDOW 3 52 70 Left 2
SYMATTR InstName Q1
SYMATTR Value BC557C
SYMBOL ind 192 80 R0
SYMATTR InstName L1
SYMATTR Value 330µ
SYMBOL cap 96 96 R0
SYMATTR InstName C10
SYMATTR Value {Cvar}
SYMBOL ind -608 -32 R0
WINDOW 3 37 12 Left 2
SYMATTR InstName L2
SYMATTR Value 330µ
SYMBOL cap -704 -16 R0
WINDOW 0 -34 10 Left 2
WINDOW 3 -66 50 Left 2
SYMATTR InstName C11
SYMATTR Value {Cvar}
SYMBOL schottky -320 96 R180
WINDOW 0 -22 65 Left 2
WINDOW 3 -64 90 Left 2
SYMATTR InstName D4
SYMATTR Value BAT54
SYMATTR Description Diode
SYMATTR Type diode
SYMBOL schottky -256 32 R0
WINDOW 3 100 -27 Right 2
SYMATTR InstName D5
SYMATTR Value BAT54
SYMATTR Description Diode
SYMATTR Type diode
SYMBOL polcap -544 -320 R0
SYMATTR InstName C12
SYMATTR Value 10µ
SYMBOL cap -624 -320 R0
SYMATTR InstName C13
SYMATTR Value 100n
SYMBOL diode -672 -256 R180
WINDOW 0 24 64 Left 2
WINDOW 3 -13 -8 VRight 2
SYMATTR InstName D2
SYMATTR Value 1N4148
SYMBOL res 336 -224 R0
SYMATTR InstName R4
SYMATTR Value 470
TEXT -432 272 Left 2 !.tran 0 25m 24m
TEXT 1008 280 Left 2 !.MODEL BF245A NJF( \n+ VTO=-1.7372 \n+ BETA=1.16621m \n+ BETATCE=-0.5 \n+ LAMBDA=1.77211E-2 \n+ RD=9.01678 \n+ RS=9.01678 \n+ CGS=2.20000p \n+ CGD=2.20000p \n+ PB=7.80988E-1 \n+ IS=2.91797E-16 \n+ XTI=3 \n+ AF=1 \n+ FC=0.5 \n+ N=1 \n+ NR=2 \n+ MFG=PHILIPS)
TEXT -232 -408 Left 2 ;Input stage
TEXT 80 -408 Left 2 ;Tuned RF preamplifier
TEXT 528 -408 Left 2 ;Audion with filter
TEXT 1016 -408 Left 2 ;Output stage
TEXT 528 280 Left 2 ;GND & Earth
TEXT -432 304 Left 2 !.step param Cvar list 10p 200p 400p
TEXT -432 336 Left 2 ;f0 (L = 330u, C = 10p) = 2.77MHz\nf0 (L = 330u, C = 200p) = 619kHz\nf0 (L = 330u, C = 400p) = 438kHz\n(in this simulation the carrier frequenc: 450kHz)
TEXT -792 256 Left 2 ;common axis
TEXT -648 -408 Left 2 ;PS stage
TEXT 232 -344 Left 2 ;Log
TEXT 376 -344 Left 2 ;Lin
LINE Normal 160 80 0 240 2
LINE Normal 0 240 -800 240 2
LINE Normal -640 -16 -800 128 2
LINE Normal -800 240 -800 128 2
RECTANGLE Normal 320 208 80 -384 2
RECTANGLE Normal 880 208 336 -384 2
RECTANGLE Normal 1264 208 896 -384 2
RECTANGLE Normal -448 208 64 -384 2
RECTANGLE Normal -736 -160 -464 -384 2
